
Version, 8.1;

Timestep, 6;

ShadowCalculation,
	AverageOverDaysInFrequency,        !- Calculation Method
	30,        !- Calculation Frequency
	3000;    !- Maximum Figures in Shadow Overlap Calculation

ProgramControl,
	10; !- Number of Threads AllowedNumber

Building,
	Test_IDF.idf, !- Name
	0.0, !- North Axis {deg}
	City, !- Terrain
	0.040000000000000001, !- Loads Convergence Tolerance Value
	0.40000000000000002, !- Temperature Convergence Tolerance Value {deltaC}
	FullInteriorAndExteriorWithReflections, !- Solar Distribution or maybe FullExterior
	25, !- Maximum Number of Warmup Days
	6; !- Minimum Number of Warmup Days

HeatBalanceAlgorithm, ConductionTransferFunction;

SurfaceConvectionAlgorithm:Inside, TARP;

SurfaceConvectionAlgorithm:Outside, DOE-2;

SimulationControl,
	Yes,    !- Do Zone Sizing Calculation
	Yes,  !- Do System Sizing Calculation
	Yes,   !- Do Plant Sizing Calculation
	No,  !- Run Simulation for Sizing Periods
	Yes; !- Run Simulation for Weather File Run Periods

RunPeriod,
	customRun,    !- Name
	1,   !- Begin Month
	1,    !- Begin Day of Month
	12, !- End Month
	31,   !- End Day of Month
	UseWeatherFile,   !- Day of Week for Start Day
	Yes,              !- Use Weather File Holidays and Special Days
	Yes,              !- Use Weather File Daylight Saving Period
	No,               !- Apply Weekend Holiday Rule
	Yes,              !- Use Weather File Rain Indicators
	Yes;              !- Use Weather File Snow Indicators
ScheduleTypeLimits,
  TEMPERATURE 1,   !- name
  ,   !- - Lower Limit Value {BasedOnField A3}
  ,   !- - Upper Limit Value {BasedOnField A3}
  Continuous,   !- - Numeric Type
  temperature;   !- - Unit Type

ScheduleTypeLimits,
  TEMPERATURE 2,   !- name
  ,   !- - Lower Limit Value {BasedOnField A3}
  ,   !- - Upper Limit Value {BasedOnField A3}
  Continuous,   !- - Numeric Type
  temperature;   !- - Unit Type

ScheduleTypeLimits,
  ACTIVITYLEVEL 15,   !- name
  0,   !- - Lower Limit Value {BasedOnField A3}
  ,   !- - Upper Limit Value {BasedOnField A3}
  Continuous,   !- - Numeric Type
  activitylevel;   !- - Unit Type

ScheduleTypeLimits,
  TEMPERATURE 3,   !- name
  ,   !- - Lower Limit Value {BasedOnField A3}
  ,   !- - Upper Limit Value {BasedOnField A3}
  Continuous,   !- - Numeric Type
  temperature;   !- - Unit Type

ScheduleTypeLimits,
  TEMPERATURE 4,   !- name
  ,   !- - Lower Limit Value {BasedOnField A3}
  ,   !- - Upper Limit Value {BasedOnField A3}
  Continuous,   !- - Numeric Type
  temperature;   !- - Unit Type

ScheduleTypeLimits,
  TEMPERATURE 5,   !- name
  ,   !- - Lower Limit Value {BasedOnField A3}
  ,   !- - Upper Limit Value {BasedOnField A3}
  Continuous,   !- - Numeric Type
  temperature;   !- - Unit Type

ScheduleTypeLimits,
  TEMPERATURE 6,   !- name
  ,   !- - Lower Limit Value {BasedOnField A3}
  ,   !- - Upper Limit Value {BasedOnField A3}
  Continuous,   !- - Numeric Type
  temperature;   !- - Unit Type

ScheduleTypeLimits,
  TEMPERATURE 7,   !- name
  ,   !- - Lower Limit Value {BasedOnField A3}
  ,   !- - Upper Limit Value {BasedOnField A3}
  Continuous,   !- - Numeric Type
  temperature;   !- - Unit Type

ScheduleTypeLimits,
  TEMPERATURE 19,   !- name
  ,   !- - Lower Limit Value {BasedOnField A3}
  ,   !- - Upper Limit Value {BasedOnField A3}
  Continuous,   !- - Numeric Type
  temperature;   !- - Unit Type

ScheduleTypeLimits,
  TEMPERATURE 14,   !- name
  ,   !- - Lower Limit Value {BasedOnField A3}
  ,   !- - Upper Limit Value {BasedOnField A3}
  Continuous,   !- - Numeric Type
  temperature;   !- - Unit Type

ScheduleTypeLimits,
  TEMPERATURE 24,   !- name
  ,   !- - Lower Limit Value {BasedOnField A3}
  ,   !- - Upper Limit Value {BasedOnField A3}
  Continuous,   !- - Numeric Type
  temperature;   !- - Unit Type

ScheduleTypeLimits,
  TEMPERATURE 29,   !- name
  ,   !- - Lower Limit Value {BasedOnField A3}
  ,   !- - Upper Limit Value {BasedOnField A3}
  Continuous,   !- - Numeric Type
  temperature;   !- - Unit Type

ScheduleTypeLimits,
  ACTIVITYLEVEL 10,   !- name
  0,   !- - Lower Limit Value {BasedOnField A3}
  ,   !- - Upper Limit Value {BasedOnField A3}
  Continuous,   !- - Numeric Type
  activitylevel;   !- - Unit Type

ScheduleTypeLimits,
  TEMPERATURE 34,   !- name
  ,   !- - Lower Limit Value {BasedOnField A3}
  ,   !- - Upper Limit Value {BasedOnField A3}
  Continuous,   !- - Numeric Type
  temperature;   !- - Unit Type

ScheduleTypeLimits,
  TEMPERATURE 44,   !- name
  ,   !- - Lower Limit Value {BasedOnField A3}
  ,   !- - Upper Limit Value {BasedOnField A3}
  Continuous,   !- - Numeric Type
  temperature;   !- - Unit Type

ScheduleTypeLimits,
  TEMPERATURE 49,   !- name
  ,   !- - Lower Limit Value {BasedOnField A3}
  ,   !- - Upper Limit Value {BasedOnField A3}
  Continuous,   !- - Numeric Type
  temperature;   !- - Unit Type

ScheduleTypeLimits,
  TEMPERATURE 54,   !- name
  ,   !- - Lower Limit Value {BasedOnField A3}
  ,   !- - Upper Limit Value {BasedOnField A3}
  Continuous,   !- - Numeric Type
  temperature;   !- - Unit Type

ScheduleTypeLimits,
  TEMPERATURE 59,   !- name
  ,   !- - Lower Limit Value {BasedOnField A3}
  ,   !- - Upper Limit Value {BasedOnField A3}
  Continuous,   !- - Numeric Type
  temperature;   !- - Unit Type

ScheduleTypeLimits,
  TEMPERATURE 11,   !- name
  ,   !- - Lower Limit Value {BasedOnField A3}
  ,   !- - Upper Limit Value {BasedOnField A3}
  Continuous,   !- - Numeric Type
  temperature;   !- - Unit Type

ScheduleTypeLimits,
  TEMPERATURE 21,   !- name
  ,   !- - Lower Limit Value {BasedOnField A3}
  ,   !- - Upper Limit Value {BasedOnField A3}
  Continuous,   !- - Numeric Type
  temperature;   !- - Unit Type

ScheduleTypeLimits,
  TEMPERATURE 31,   !- name
  ,   !- - Lower Limit Value {BasedOnField A3}
  ,   !- - Upper Limit Value {BasedOnField A3}
  Continuous,   !- - Numeric Type
  temperature;   !- - Unit Type

ScheduleTypeLimits,
  TEMPERATURE 41,   !- name
  ,   !- - Lower Limit Value {BasedOnField A3}
  ,   !- - Upper Limit Value {BasedOnField A3}
  Continuous,   !- - Numeric Type
  temperature;   !- - Unit Type

ScheduleTypeLimits,
  TEMPERATURE 51,   !- name
  ,   !- - Lower Limit Value {BasedOnField A3}
  ,   !- - Upper Limit Value {BasedOnField A3}
  Continuous,   !- - Numeric Type
  temperature;   !- - Unit Type

ScheduleTypeLimits,
  ON/OFF,   !- name
  0,   !- - Lower Limit Value {BasedOnField A3}
  1,   !- - Upper Limit Value {BasedOnField A3}
  DISCRETE;   !- - Numeric Type

ScheduleTypeLimits,
  ACTIVITYLEVEL 13,   !- name
  0,   !- - Lower Limit Value {BasedOnField A3}
  ,   !- - Upper Limit Value {BasedOnField A3}
  Continuous,   !- - Numeric Type
  activitylevel;   !- - Unit Type

ScheduleTypeLimits,
  TEMPERATURE 16,   !- name
  ,   !- - Lower Limit Value {BasedOnField A3}
  ,   !- - Upper Limit Value {BasedOnField A3}
  Continuous,   !- - Numeric Type
  temperature;   !- - Unit Type

ScheduleTypeLimits,
  TEMPERATURE 26,   !- name
  ,   !- - Lower Limit Value {BasedOnField A3}
  ,   !- - Upper Limit Value {BasedOnField A3}
  Continuous,   !- - Numeric Type
  temperature;   !- - Unit Type

ScheduleTypeLimits,
  TEMPERATURE 36,   !- name
  ,   !- - Lower Limit Value {BasedOnField A3}
  ,   !- - Upper Limit Value {BasedOnField A3}
  Continuous,   !- - Numeric Type
  temperature;   !- - Unit Type

ScheduleTypeLimits,
  TEMPERATURE 46,   !- name
  ,   !- - Lower Limit Value {BasedOnField A3}
  ,   !- - Upper Limit Value {BasedOnField A3}
  Continuous,   !- - Numeric Type
  temperature;   !- - Unit Type

ScheduleTypeLimits,
  TEMPERATURE 56,   !- name
  ,   !- - Lower Limit Value {BasedOnField A3}
  ,   !- - Upper Limit Value {BasedOnField A3}
  Continuous,   !- - Numeric Type
  temperature;   !- - Unit Type

ScheduleTypeLimits,
  TEMPERATURE 13,   !- name
  ,   !- - Lower Limit Value {BasedOnField A3}
  ,   !- - Upper Limit Value {BasedOnField A3}
  Continuous,   !- - Numeric Type
  temperature;   !- - Unit Type

ScheduleTypeLimits,
  TEMPERATURE 23,   !- name
  ,   !- - Lower Limit Value {BasedOnField A3}
  ,   !- - Upper Limit Value {BasedOnField A3}
  Continuous,   !- - Numeric Type
  temperature;   !- - Unit Type

ScheduleTypeLimits,
  TEMPERATURE 33,   !- name
  ,   !- - Lower Limit Value {BasedOnField A3}
  ,   !- - Upper Limit Value {BasedOnField A3}
  Continuous,   !- - Numeric Type
  temperature;   !- - Unit Type

ScheduleTypeLimits,
  TEMPERATURE 43,   !- name
  ,   !- - Lower Limit Value {BasedOnField A3}
  ,   !- - Upper Limit Value {BasedOnField A3}
  Continuous,   !- - Numeric Type
  temperature;   !- - Unit Type

ScheduleTypeLimits,
  TEMPERATURE 53,   !- name
  ,   !- - Lower Limit Value {BasedOnField A3}
  ,   !- - Upper Limit Value {BasedOnField A3}
  Continuous,   !- - Numeric Type
  temperature;   !- - Unit Type

ScheduleTypeLimits,
  TEMPERATURE 18,   !- name
  ,   !- - Lower Limit Value {BasedOnField A3}
  ,   !- - Upper Limit Value {BasedOnField A3}
  Continuous,   !- - Numeric Type
  temperature;   !- - Unit Type

ScheduleTypeLimits,
  ACTIVITYLEVEL 11,   !- name
  0,   !- - Lower Limit Value {BasedOnField A3}
  ,   !- - Upper Limit Value {BasedOnField A3}
  Continuous,   !- - Numeric Type
  activitylevel;   !- - Unit Type

ScheduleTypeLimits,
  TEMPERATURE 38,   !- name
  ,   !- - Lower Limit Value {BasedOnField A3}
  ,   !- - Upper Limit Value {BasedOnField A3}
  Continuous,   !- - Numeric Type
  temperature;   !- - Unit Type

ScheduleTypeLimits,
  TEMPERATURE 48,   !- name
  ,   !- - Lower Limit Value {BasedOnField A3}
  ,   !- - Upper Limit Value {BasedOnField A3}
  Continuous,   !- - Numeric Type
  temperature;   !- - Unit Type

ScheduleTypeLimits,
  FRACTION,   !- name
  0,   !- - Lower Limit Value {BasedOnField A3}
  1,   !- - Upper Limit Value {BasedOnField A3}
  CONTINUOUS;   !- - Numeric Type

ScheduleTypeLimits,
  ACTIVITYLEVEL 4,   !- name
  0,   !- - Lower Limit Value {BasedOnField A3}
  ,   !- - Upper Limit Value {BasedOnField A3}
  Continuous,   !- - Numeric Type
  activitylevel;   !- - Unit Type

ScheduleTypeLimits,
  ACTIVITYLEVEL 5,   !- name
  0,   !- - Lower Limit Value {BasedOnField A3}
  ,   !- - Upper Limit Value {BasedOnField A3}
  Continuous,   !- - Numeric Type
  activitylevel;   !- - Unit Type

ScheduleTypeLimits,
  TEMPERATURE 10,   !- name
  ,   !- - Lower Limit Value {BasedOnField A3}
  ,   !- - Upper Limit Value {BasedOnField A3}
  Continuous,   !- - Numeric Type
  temperature;   !- - Unit Type

ScheduleTypeLimits,
  ACTIVITYLEVEL 6,   !- name
  0,   !- - Lower Limit Value {BasedOnField A3}
  ,   !- - Upper Limit Value {BasedOnField A3}
  Continuous,   !- - Numeric Type
  activitylevel;   !- - Unit Type

ScheduleTypeLimits,
  ACTIVITYLEVEL 7,   !- name
  0,   !- - Lower Limit Value {BasedOnField A3}
  ,   !- - Upper Limit Value {BasedOnField A3}
  Continuous,   !- - Numeric Type
  activitylevel;   !- - Unit Type

ScheduleTypeLimits,
  ACTIVITYLEVEL 1,   !- name
  0,   !- - Lower Limit Value {BasedOnField A3}
  ,   !- - Upper Limit Value {BasedOnField A3}
  Continuous,   !- - Numeric Type
  activitylevel;   !- - Unit Type

ScheduleTypeLimits,
  ACTIVITYLEVEL 2,   !- name
  0,   !- - Lower Limit Value {BasedOnField A3}
  ,   !- - Upper Limit Value {BasedOnField A3}
  Continuous,   !- - Numeric Type
  activitylevel;   !- - Unit Type

ScheduleTypeLimits,
  ACTIVITYLEVEL 3,   !- name
  0,   !- - Lower Limit Value {BasedOnField A3}
  ,   !- - Upper Limit Value {BasedOnField A3}
  Continuous,   !- - Numeric Type
  activitylevel;   !- - Unit Type

ScheduleTypeLimits,
  ACTIVITYLEVEL,   !- name
  0,   !- - Lower Limit Value {BasedOnField A3}
  ,   !- - Upper Limit Value {BasedOnField A3}
  Continuous,   !- - Numeric Type
  activitylevel;   !- - Unit Type

ScheduleTypeLimits,
  TEMPERATURE 20,   !- name
  ,   !- - Lower Limit Value {BasedOnField A3}
  ,   !- - Upper Limit Value {BasedOnField A3}
  Continuous,   !- - Numeric Type
  temperature;   !- - Unit Type

ScheduleTypeLimits,
  TEMPERATURE 30,   !- name
  ,   !- - Lower Limit Value {BasedOnField A3}
  ,   !- - Upper Limit Value {BasedOnField A3}
  Continuous,   !- - Numeric Type
  temperature;   !- - Unit Type

ScheduleTypeLimits,
  TEMPERATURE 40,   !- name
  ,   !- - Lower Limit Value {BasedOnField A3}
  ,   !- - Upper Limit Value {BasedOnField A3}
  Continuous,   !- - Numeric Type
  temperature;   !- - Unit Type

ScheduleTypeLimits,
  FRACTIONAL,   !- name
  0,   !- - Lower Limit Value {BasedOnField A3}
  1,   !- - Upper Limit Value {BasedOnField A3}
  Continuous;   !- - Numeric Type

ScheduleTypeLimits,
  ACTIVITYLEVEL 8,   !- name
  0,   !- - Lower Limit Value {BasedOnField A3}
  ,   !- - Upper Limit Value {BasedOnField A3}
  Continuous,   !- - Numeric Type
  activitylevel;   !- - Unit Type

ScheduleTypeLimits,
  ACTIVITYLEVEL 9,   !- name
  0,   !- - Lower Limit Value {BasedOnField A3}
  ,   !- - Upper Limit Value {BasedOnField A3}
  Continuous,   !- - Numeric Type
  activitylevel;   !- - Unit Type

ScheduleTypeLimits,
  ACTIVITYLEVEL 14,   !- name
  0,   !- - Lower Limit Value {BasedOnField A3}
  ,   !- - Upper Limit Value {BasedOnField A3}
  Continuous,   !- - Numeric Type
  activitylevel;   !- - Unit Type

ScheduleTypeLimits,
  TEMPERATURE 50,   !- name
  ,   !- - Lower Limit Value {BasedOnField A3}
  ,   !- - Upper Limit Value {BasedOnField A3}
  Continuous,   !- - Numeric Type
  temperature;   !- - Unit Type

ScheduleTypeLimits,
  TEMPERATURE 15,   !- name
  ,   !- - Lower Limit Value {BasedOnField A3}
  ,   !- - Upper Limit Value {BasedOnField A3}
  Continuous,   !- - Numeric Type
  temperature;   !- - Unit Type

ScheduleTypeLimits,
  TEMPERATURE 25,   !- name
  ,   !- - Lower Limit Value {BasedOnField A3}
  ,   !- - Upper Limit Value {BasedOnField A3}
  Continuous,   !- - Numeric Type
  temperature;   !- - Unit Type

ScheduleTypeLimits,
  TEMPERATURE 35,   !- name
  ,   !- - Lower Limit Value {BasedOnField A3}
  ,   !- - Upper Limit Value {BasedOnField A3}
  Continuous,   !- - Numeric Type
  temperature;   !- - Unit Type

ScheduleTypeLimits,
  TEMPERATURE 45,   !- name
  ,   !- - Lower Limit Value {BasedOnField A3}
  ,   !- - Upper Limit Value {BasedOnField A3}
  Continuous,   !- - Numeric Type
  temperature;   !- - Unit Type

ScheduleTypeLimits,
  TEMPERATURE 55,   !- name
  ,   !- - Lower Limit Value {BasedOnField A3}
  ,   !- - Upper Limit Value {BasedOnField A3}
  Continuous,   !- - Numeric Type
  temperature;   !- - Unit Type

ScheduleTypeLimits,
  TEMPERATURE 12,   !- name
  ,   !- - Lower Limit Value {BasedOnField A3}
  ,   !- - Upper Limit Value {BasedOnField A3}
  Continuous,   !- - Numeric Type
  temperature;   !- - Unit Type

ScheduleTypeLimits,
  TEMPERATURE 22,   !- name
  ,   !- - Lower Limit Value {BasedOnField A3}
  ,   !- - Upper Limit Value {BasedOnField A3}
  Continuous,   !- - Numeric Type
  temperature;   !- - Unit Type

ScheduleTypeLimits,
  TEMPERATURE 32,   !- name
  ,   !- - Lower Limit Value {BasedOnField A3}
  ,   !- - Upper Limit Value {BasedOnField A3}
  Continuous,   !- - Numeric Type
  temperature;   !- - Unit Type

ScheduleTypeLimits,
  TEMPERATURE 42,   !- name
  ,   !- - Lower Limit Value {BasedOnField A3}
  ,   !- - Upper Limit Value {BasedOnField A3}
  Continuous,   !- - Numeric Type
  temperature;   !- - Unit Type

ScheduleTypeLimits,
  TEMPERATURE 52,   !- name
  ,   !- - Lower Limit Value {BasedOnField A3}
  ,   !- - Upper Limit Value {BasedOnField A3}
  Continuous,   !- - Numeric Type
  temperature;   !- - Unit Type

ScheduleTypeLimits,
  ACTIVITYLEVEL 12,   !- name
  0,   !- - Lower Limit Value {BasedOnField A3}
  ,   !- - Upper Limit Value {BasedOnField A3}
  Continuous,   !- - Numeric Type
  activitylevel;   !- - Unit Type

ScheduleTypeLimits,
  TEMPERATURE 17,   !- name
  ,   !- - Lower Limit Value {BasedOnField A3}
  ,   !- - Upper Limit Value {BasedOnField A3}
  Continuous,   !- - Numeric Type
  temperature;   !- - Unit Type

ScheduleTypeLimits,
  TEMPERATURE 27,   !- name
  ,   !- - Lower Limit Value {BasedOnField A3}
  ,   !- - Upper Limit Value {BasedOnField A3}
  Continuous,   !- - Numeric Type
  temperature;   !- - Unit Type

ScheduleTypeLimits,
  TEMPERATURE 37,   !- name
  ,   !- - Lower Limit Value {BasedOnField A3}
  ,   !- - Upper Limit Value {BasedOnField A3}
  Continuous,   !- - Numeric Type
  temperature;   !- - Unit Type

ScheduleTypeLimits,
  TEMPERATURE 47,   !- name
  ,   !- - Lower Limit Value {BasedOnField A3}
  ,   !- - Upper Limit Value {BasedOnField A3}
  Continuous,   !- - Numeric Type
  temperature;   !- - Unit Type

ScheduleTypeLimits,
  TEMPERATURE 8,   !- name
  ,   !- - Lower Limit Value {BasedOnField A3}
  ,   !- - Upper Limit Value {BasedOnField A3}
  Continuous,   !- - Numeric Type
  temperature;   !- - Unit Type

ScheduleTypeLimits,
  TEMPERATURE 9,   !- name
  ,   !- - Lower Limit Value {BasedOnField A3}
  ,   !- - Upper Limit Value {BasedOnField A3}
  Continuous,   !- - Numeric Type
  temperature;   !- - Unit Type


GlobalGeometryRules,
	LowerLeftCorner,         !- Starting Vertex Position
	CounterClockWise,        !- Vertex Entry Direction
	Absolute;                !- Coordinate System

Zone,
	zone_0,
	0,	!-Direction of Relative North {deg}
	0.0,	!- X Origin {m}
	0.0,	!- Y Origin {m}
	0.0,	!- Z Origin {m}
	1;	!- Type

BuildingSurface:Detailed,
	zone_0_Srf_0,	!- Name
	FLOOR,	!- Surface Type
	Floor_Con,	!- Construction Name
	zone_0,	!- Zone Name
	ground,	!- Outside Boundary Condition
	,	!- Outside Boundary Condition Object
	NoSun,	!- Sun Exposure
	NoWind,	!- Wind Exposure
	autocalculate,	!- View Factor to Ground
	4,	!- Number of Vertices
	-19.906204223632813,
	-10.716026306152344,
	0.0,
	-19.906204223632813,
	-6.716026782989502,
	0.0,
	-15.906205177307129,
	-6.716026782989502,
	0.0,
	-15.906205177307129,
	-10.716026306152344,
	0.0;


BuildingSurface:Detailed,
	zone_0_Srf_1,	!- Name
	ROOF,	!- Surface Type
	Roof_Con,	!- Construction Name
	zone_0,	!- Zone Name
	OUTDOORS,	!- Outside Boundary Condition
	,	!- Outside Boundary Condition Object
	SunExposed,	!- Sun Exposure
	WindExposed,	!- Wind Exposure
	autocalculate,	!- View Factor to Ground
	4,	!- Number of Vertices
	-19.906204223632813,
	-10.716026306152344,
	3.0,
	-15.906205177307129,
	-10.716026306152344,
	3.0,
	-15.906205177307129,
	-6.716026782989502,
	3.0,
	-19.906204223632813,
	-6.716026782989502,
	3.0;


BuildingSurface:Detailed,
	zone_0_Srf_2,	!- Name
	WALL,	!- Surface Type
	IntWall_Con,	!- Construction Name
	zone_0,	!- Zone Name
	SURFACE,	!- Outside Boundary Condition
	zone_1_Srf_5,	!- Outside Boundary Condition Object
	NoSun,	!- Sun Exposure
	NoWind,	!- Wind Exposure
	autocalculate,	!- View Factor to Ground
	4,	!- Number of Vertices
	-15.906205177307129,
	-6.716026782989502,
	0.0,
	-19.906204223632813,
	-6.716026782989502,
	0.0,
	-19.906204223632813,
	-6.716026782989502,
	3.0,
	-15.906205177307129,
	-6.716026782989502,
	3.0;


BuildingSurface:Detailed,
	zone_0_Srf_3,	!- Name
	WALL,	!- Surface Type
	IntWall_Con,	!- Construction Name
	zone_0,	!- Zone Name
	SURFACE,	!- Outside Boundary Condition
	zone_2_Srf_5,	!- Outside Boundary Condition Object
	NoSun,	!- Sun Exposure
	NoWind,	!- Wind Exposure
	autocalculate,	!- View Factor to Ground
	4,	!- Number of Vertices
	-15.906205177307129,
	-10.716026306152344,
	0.0,
	-15.906205177307129,
	-6.716026782989502,
	0.0,
	-15.906205177307129,
	-6.716026782989502,
	3.0,
	-15.906205177307129,
	-10.716026306152344,
	3.0;


BuildingSurface:Detailed,
	zone_0_Srf_4,	!- Name
	WALL,	!- Surface Type
	IntWall_Con,	!- Construction Name
	zone_0,	!- Zone Name
	SURFACE,	!- Outside Boundary Condition
	zone_3_Srf_5,	!- Outside Boundary Condition Object
	NoSun,	!- Sun Exposure
	NoWind,	!- Wind Exposure
	autocalculate,	!- View Factor to Ground
	4,	!- Number of Vertices
	-19.906204223632813,
	-10.716026306152344,
	0.0,
	-15.906205177307129,
	-10.716026306152344,
	0.0,
	-15.906205177307129,
	-10.716026306152344,
	3.0,
	-19.906204223632813,
	-10.716026306152344,
	3.0;


BuildingSurface:Detailed,
	zone_0_Srf_5,	!- Name
	WALL,	!- Surface Type
	IntWall_Con,	!- Construction Name
	zone_0,	!- Zone Name
	SURFACE,	!- Outside Boundary Condition
	zone_4_Srf_5,	!- Outside Boundary Condition Object
	NoSun,	!- Sun Exposure
	NoWind,	!- Wind Exposure
	autocalculate,	!- View Factor to Ground
	4,	!- Number of Vertices
	-19.906204223632813,
	-6.716026782989502,
	0.0,
	-19.906204223632813,
	-10.716026306152344,
	0.0,
	-19.906204223632813,
	-10.716026306152344,
	3.0,
	-19.906204223632813,
	-6.716026782989502,
	3.0;


Zone,
	zone_1,
	0,	!-Direction of Relative North {deg}
	0.0,	!- X Origin {m}
	0.0,	!- Y Origin {m}
	0.0,	!- Z Origin {m}
	1;	!- Type

BuildingSurface:Detailed,
	zone_1_Srf_0,	!- Name
	FLOOR,	!- Surface Type
	Floor_Con,	!- Construction Name
	zone_1,	!- Zone Name
	ground,	!- Outside Boundary Condition
	,	!- Outside Boundary Condition Object
	NoSun,	!- Sun Exposure
	NoWind,	!- Wind Exposure
	autocalculate,	!- View Factor to Ground
	4,	!- Number of Vertices
	-19.906204223632813,
	-6.716026782989502,
	0.0,
	-22.906204223632813,
	-3.716026544570923,
	0.0,
	-12.906205177307129,
	-3.716026544570923,
	0.0,
	-15.906205177307129,
	-6.716026782989502,
	0.0;


BuildingSurface:Detailed,
	zone_1_Srf_1,	!- Name
	ROOF,	!- Surface Type
	Roof_Con,	!- Construction Name
	zone_1,	!- Zone Name
	OUTDOORS,	!- Outside Boundary Condition
	,	!- Outside Boundary Condition Object
	SunExposed,	!- Sun Exposure
	WindExposed,	!- Wind Exposure
	autocalculate,	!- View Factor to Ground
	4,	!- Number of Vertices
	-19.906204223632813,
	-6.716026782989502,
	3.0,
	-15.906205177307129,
	-6.716026782989502,
	3.0,
	-12.906205177307129,
	-3.716026544570923,
	3.0,
	-22.906204223632813,
	-3.716026544570923,
	3.0;


BuildingSurface:Detailed,
	zone_1_Srf_2,	!- Name
	WALL,	!- Surface Type
	IntWall_Con,	!- Construction Name
	zone_1,	!- Zone Name
	SURFACE,	!- Outside Boundary Condition
	zone_2_Srf_3,	!- Outside Boundary Condition Object
	NoSun,	!- Sun Exposure
	NoWind,	!- Wind Exposure
	autocalculate,	!- View Factor to Ground
	4,	!- Number of Vertices
	-15.906205177307129,
	-6.716026782989502,
	0.0,
	-12.906205177307129,
	-3.716026544570923,
	0.0,
	-12.906205177307129,
	-3.716026544570923,
	3.0,
	-15.906205177307129,
	-6.716026782989502,
	3.0;


BuildingSurface:Detailed,
	zone_1_Srf_3,	!- Name
	WALL,	!- Surface Type
	IntWall_Con,	!- Construction Name
	zone_1,	!- Zone Name
	SURFACE,	!- Outside Boundary Condition
	zone_4_Srf_2,	!- Outside Boundary Condition Object
	NoSun,	!- Sun Exposure
	NoWind,	!- Wind Exposure
	autocalculate,	!- View Factor to Ground
	4,	!- Number of Vertices
	-22.906204223632813,
	-3.716026544570923,
	0.0,
	-19.906204223632813,
	-6.716026782989502,
	0.0,
	-19.906204223632813,
	-6.716026782989502,
	3.0,
	-22.906204223632813,
	-3.716026544570923,
	3.0;


BuildingSurface:Detailed,
	zone_1_Srf_4,	!- Name
	WALL,	!- Surface Type
	ExtWall_Con,	!- Construction Name
	zone_1,	!- Zone Name
	OUTDOORS,	!- Outside Boundary Condition
	,	!- Outside Boundary Condition Object
	SunExposed,	!- Sun Exposure
	WindExposed,	!- Wind Exposure
	autocalculate,	!- View Factor to Ground
	4,	!- Number of Vertices
	-12.906205177307129,
	-3.716026544570923,
	0.0,
	-22.906204223632813,
	-3.716026544570923,
	0.0,
	-22.906204223632813,
	-3.716026544570923,
	3.0,
	-12.906205177307129,
	-3.716026544570923,
	3.0;


FenestrationSurface:Detailed,
	zone_1_Srf_4_glz_0,	!- Name
	WINDOW,	!- Surface Type
	ExtWindow_Con,	!- Construction Name
	zone_1_Srf_4,	!- Surface Name
	,	!- Outside Boundary Condition Object
	autocalculate,	!- View Factor to Ground
	,	!- Shading Control Name
	,	!- Frame and Divider Name
	1,	!- Multiplier
	4,	!- Number of Vertices
	-15.670137405395508,
	-3.716026544570923,
	0.82917958498001099,
	-20.14227294921875,
	-3.716026544570923,
	0.82917958498001099,
	-20.14227294921875,
	-3.716026544570923,
	2.170820474624634,
	-15.670137405395508,
	-3.716026544570923,
	2.170820474624634;


BuildingSurface:Detailed,
	zone_1_Srf_5,	!- Name
	WALL,	!- Surface Type
	IntWall_Con,	!- Construction Name
	zone_1,	!- Zone Name
	SURFACE,	!- Outside Boundary Condition
	zone_0_Srf_2,	!- Outside Boundary Condition Object
	NoSun,	!- Sun Exposure
	NoWind,	!- Wind Exposure
	autocalculate,	!- View Factor to Ground
	4,	!- Number of Vertices
	-19.906204223632813,
	-6.716026782989502,
	0.0,
	-15.906205177307129,
	-6.716026782989502,
	0.0,
	-15.906205177307129,
	-6.716026782989502,
	3.0,
	-19.906204223632813,
	-6.716026782989502,
	3.0;


Zone,
	zone_2,
	0,	!-Direction of Relative North {deg}
	0.0,	!- X Origin {m}
	0.0,	!- Y Origin {m}
	0.0,	!- Z Origin {m}
	1;	!- Type

BuildingSurface:Detailed,
	zone_2_Srf_0,	!- Name
	FLOOR,	!- Surface Type
	Floor_Con,	!- Construction Name
	zone_2,	!- Zone Name
	ground,	!- Outside Boundary Condition
	,	!- Outside Boundary Condition Object
	NoSun,	!- Sun Exposure
	NoWind,	!- Wind Exposure
	autocalculate,	!- View Factor to Ground
	4,	!- Number of Vertices
	-15.906205177307129,
	-10.716026306152344,
	0.0,
	-15.906205177307129,
	-6.716026782989502,
	0.0,
	-12.906205177307129,
	-3.716026544570923,
	0.0,
	-12.906205177307129,
	-13.716026306152344,
	0.0;


BuildingSurface:Detailed,
	zone_2_Srf_1,	!- Name
	ROOF,	!- Surface Type
	Roof_Con,	!- Construction Name
	zone_2,	!- Zone Name
	OUTDOORS,	!- Outside Boundary Condition
	,	!- Outside Boundary Condition Object
	SunExposed,	!- Sun Exposure
	WindExposed,	!- Wind Exposure
	autocalculate,	!- View Factor to Ground
	4,	!- Number of Vertices
	-15.906205177307129,
	-10.716026306152344,
	3.0,
	-12.906205177307129,
	-13.716026306152344,
	3.0,
	-12.906205177307129,
	-3.716026544570923,
	3.0,
	-15.906205177307129,
	-6.716026782989502,
	3.0;


BuildingSurface:Detailed,
	zone_2_Srf_2,	!- Name
	WALL,	!- Surface Type
	IntWall_Con,	!- Construction Name
	zone_2,	!- Zone Name
	SURFACE,	!- Outside Boundary Condition
	zone_3_Srf_3,	!- Outside Boundary Condition Object
	NoSun,	!- Sun Exposure
	NoWind,	!- Wind Exposure
	autocalculate,	!- View Factor to Ground
	4,	!- Number of Vertices
	-15.906205177307129,
	-10.716026306152344,
	0.0,
	-12.906205177307129,
	-13.716026306152344,
	0.0,
	-12.906205177307129,
	-13.716026306152344,
	3.0,
	-15.906205177307129,
	-10.716026306152344,
	3.0;


BuildingSurface:Detailed,
	zone_2_Srf_3,	!- Name
	WALL,	!- Surface Type
	IntWall_Con,	!- Construction Name
	zone_2,	!- Zone Name
	SURFACE,	!- Outside Boundary Condition
	zone_1_Srf_2,	!- Outside Boundary Condition Object
	NoSun,	!- Sun Exposure
	NoWind,	!- Wind Exposure
	autocalculate,	!- View Factor to Ground
	4,	!- Number of Vertices
	-12.906205177307129,
	-3.716026544570923,
	0.0,
	-15.906205177307129,
	-6.716026782989502,
	0.0,
	-15.906205177307129,
	-6.716026782989502,
	3.0,
	-12.906205177307129,
	-3.716026544570923,
	3.0;


BuildingSurface:Detailed,
	zone_2_Srf_4,	!- Name
	WALL,	!- Surface Type
	ExtWall_Con,	!- Construction Name
	zone_2,	!- Zone Name
	OUTDOORS,	!- Outside Boundary Condition
	,	!- Outside Boundary Condition Object
	SunExposed,	!- Sun Exposure
	WindExposed,	!- Wind Exposure
	autocalculate,	!- View Factor to Ground
	4,	!- Number of Vertices
	-12.906205177307129,
	-13.716026306152344,
	0.0,
	-12.906205177307129,
	-3.716026544570923,
	0.0,
	-12.906205177307129,
	-3.716026544570923,
	3.0,
	-12.906205177307129,
	-13.716026306152344,
	3.0;


FenestrationSurface:Detailed,
	zone_2_Srf_4_glz_0,	!- Name
	WINDOW,	!- Surface Type
	ExtWindow_Con,	!- Construction Name
	zone_2_Srf_4,	!- Surface Name
	,	!- Outside Boundary Condition Object
	autocalculate,	!- View Factor to Ground
	,	!- Shading Control Name
	,	!- Frame and Divider Name
	1,	!- Multiplier
	4,	!- Number of Vertices
	-12.906205177307129,
	-11.878304481506348,
	0.55131667852401733,
	-12.906205177307129,
	-5.553749084472656,
	0.55131667852401733,
	-12.906205177307129,
	-5.553749084472656,
	2.448683261871338,
	-12.906205177307129,
	-11.878304481506348,
	2.448683261871338;


BuildingSurface:Detailed,
	zone_2_Srf_5,	!- Name
	WALL,	!- Surface Type
	IntWall_Con,	!- Construction Name
	zone_2,	!- Zone Name
	SURFACE,	!- Outside Boundary Condition
	zone_0_Srf_3,	!- Outside Boundary Condition Object
	NoSun,	!- Sun Exposure
	NoWind,	!- Wind Exposure
	autocalculate,	!- View Factor to Ground
	4,	!- Number of Vertices
	-15.906205177307129,
	-6.716026782989502,
	0.0,
	-15.906205177307129,
	-10.716026306152344,
	0.0,
	-15.906205177307129,
	-10.716026306152344,
	3.0,
	-15.906205177307129,
	-6.716026782989502,
	3.0;


Zone,
	zone_3,
	0,	!-Direction of Relative North {deg}
	0.0,	!- X Origin {m}
	0.0,	!- Y Origin {m}
	0.0,	!- Z Origin {m}
	1;	!- Type

BuildingSurface:Detailed,
	zone_3_Srf_0,	!- Name
	FLOOR,	!- Surface Type
	Floor_Con,	!- Construction Name
	zone_3,	!- Zone Name
	ground,	!- Outside Boundary Condition
	,	!- Outside Boundary Condition Object
	NoSun,	!- Sun Exposure
	NoWind,	!- Wind Exposure
	autocalculate,	!- View Factor to Ground
	4,	!- Number of Vertices
	-22.906204223632813,
	-13.716026306152344,
	0.0,
	-19.906204223632813,
	-10.716026306152344,
	0.0,
	-15.906205177307129,
	-10.716026306152344,
	0.0,